03_OpenDSS_Circuits/Flay_Circuit_Opendss/Test_Case/UGLines.DSS
New Line.263960227 Bus1=259478708.2 Bus2=263960229.2 LineCode=1/0-AL-TRXLPELCJ-15KV Phases= 1  Length=1.530000 units=m
New Line.261061101 Bus1=260005788.1 Bus2=261061097.1 LineCode=1/0-AL-TRXLPELCJ-15KV Phases= 1  Length=110.300000 units=m
New Line.263395451 Bus1=258426039.1 Bus2=263395453.1 LineCode=1/0-AL-HMWPECN-15KV Phases= 1  Length=1.510000 units=m
New Line.263395456 Bus1=263395453.1 Bus2=260663880.1 LineCode=1/0-AL-HMWPECN-15KV Phases= 1  Length=130.600000 units=m
New Line.260664694 Bus1=260664691.2 Bus2=260664696.2 LineCode=1/0-AL-HMWPECN-15KV Phases= 1  Length=79.200000 units=m
New Line.260662954 Bus1=260662951.3 Bus2=260662956.3 LineCode=1/0-AL-HMWPECN-15KV Phases= 1  Length=160.400000 units=m
New Line.260663858 Bus1=260663855.2 Bus2=260663845.2 LineCode=1/0-AL-HMWPECN-15KV Phases= 1  Length=167.300000 units=m
New Line.263395330 Bus1=263395327.2 Bus2=260663835.2 LineCode=1/0-AL-HMWPECN-15KV Phases= 1  Length=163.800000 units=m
New Line.264148862 Bus1=259577429.2 Bus2=264148864.2 LineCode=1/0-AL-TRXLPELCJ-15KV Phases= 1  Length=1.520000 units=m
New Line.264148867 Bus1=264148864.2 Bus2=261434126.2 LineCode=1/0-AL-TRXLPELCJ-15KV Phases= 1  Length=403.600000 units=m
New Line.260663853 Bus1=260663850.2 Bus2=260663855.2 LineCode=1/0-AL-HMWPECN-15KV Phases= 1  Length=178.600000 units=m
New Line.263395213 Bus1=263395210.1 Bus2=260663820.1 LineCode=1/0-AL-HMWPECN-15KV Phases= 1  Length=191.500000 units=m
New Line.263395217 Bus1=258425187.1 Bus2=263395219.1 LineCode=1/0-AL-HMWPECN-15KV Phases= 1  Length=1.530000 units=m
New Line.260663838 Bus1=260663835.2 Bus2=260663840.2 LineCode=1/0-AL-HMWPECN-15KV Phases= 1  Length=265.400000 units=m
New Line.263395397 Bus1=258425792.1.2.3 Bus2=263395399.1.2.3 LineCode=1/0-AL-HMWPECN-15KV Phases= 3  Length=1.520000 units=m
New Line.260662899 Bus1=260662896.2 Bus2=260662901.2 LineCode=1/0-AL-HMWPECN-15KV Phases= 1  Length=262.900000 units=m
New Line.264148844 Bus1=259577439.3 Bus2=264148846.3 LineCode=1/0-AL-TRXLPELCJ-15KV Phases= 1  Length=1.510000 units=m
New Line.261434125 Bus1=261434126.2 Bus2=261433681.2 LineCode=1/0-AL-TRXLPELCJ-15KV Phases= 1  Length=107.800000 units=m
New Line.261434120 Bus1=261434117.2 Bus2=261433676.2 LineCode=1/0-AL-TRXLPELCJ-15KV Phases= 1  Length=145.600000 units=m
New Line.264148849 Bus1=264148846.3 Bus2=261434092.3 LineCode=1/0-AL-TRXLPELCJ-15KV Phases= 1  Length=58.840000 units=m
New Line.263399250 Bus1=263399247.1 Bus2=260664721.1 LineCode=1/0-AL-TRXLPELCJ-15KV Phases= 1  Length=611.800000 units=m
New Line.263395199 Bus1=258425177.1 Bus2=263395201.1 LineCode=1/0-AL-HMWPECN-15KV Phases= 1  Length=1.520000 units=m
New Line.260663813 Bus1=260663810.1 Bus2=260663790.1 LineCode=1/0-AL-HMWPECN-15KV Phases= 1  Length=536.400000 units=m
New Line.263399358 Bus1=263399355.3 Bus2=260664776.3 LineCode=1/0-AL-HMWPECN-15KV Phases= 1  Length=68.010000 units=m
New Line.261434105 Bus1=261433687.3 Bus2=261433671.3 LineCode=1/0-AL-TRXLPELCJ-15KV Phases= 1  Length=92.420000 units=m
New Line.261434100 Bus1=261434097.3 Bus2=261433666.3 LineCode=1/0-AL-TRXLPELCJ-15KV Phases= 1  Length=117.700000 units=m
New Line.263399353 Bus1=258443981.3 Bus2=263399355.3 LineCode=1/0-AL-HMWPECN-15KV Phases= 1  Length=1.530000 units=m
New Line.263399178 Bus1=263399175.2 Bus2=260664681.2 LineCode=1/0-AL-HMWPECN-15KV Phases= 1  Length=205.500000 units=m
New Line.263399173 Bus1=258443424.2 Bus2=263399175.2 LineCode=1/0-AL-HMWPECN-15KV Phases= 1  Length=1.530000 units=m
New Line.263399236 Bus1=258443539.1 Bus2=263399238.1 LineCode=1/0-AL-TRXLPELCJ-15KV Phases= 1  Length=1.530000 units=m
New Line.617401571 Bus1=617401567.2 Bus2=617401556.2 LineCode=1/0-AL-TRXLPELCJ-25KV Phases= 1  Length=309.500000 units=m
New Line.263702142 Bus1=258443386.3 Bus2=263702144.3 LineCode=1/0-AL-TRXLPELCJ-15KV Phases= 1  Length=1.530000 units=m
New Line.263399218 Bus1=258443524.3 Bus2=263399220.3 LineCode=1/0-AL-HMWPECN-15KV Phases= 1  Length=1.520000 units=m
New Line.263399331 Bus1=263399328.3 Bus2=260664771.3 LineCode=1/0-AL-HMWPECN-15KV Phases= 1  Length=108.300000 units=m
New Line.263702147 Bus1=263702144.3 Bus2=260972735.3 LineCode=1/0-AL-TRXLPELCJ-15KV Phases= 1  Length=173.400000 units=m
New Line.264353612 Bus1=261433676.2 Bus2=264353610.2 LineCode=1/0-AL-TRXLPELCJ-15KV Phases= 1  Length=508.600000 units=m
New Line.263399313 Bus1=263399310.3 Bus2=260664766.3 LineCode=1/0-AL-HMWPECN-15KV Phases= 1  Length=115.600000 units=m
New Line.263399394 Bus1=263399391.3 Bus2=260664781.3 LineCode=1/0-AL-HMWPECN-15KV Phases= 1  Length=30.530000 units=m
New Line.263399191 Bus1=258443464.1 Bus2=263399193.1 LineCode=1/0-AL-HMWPECN-15KV Phases= 1  Length=1.530000 units=m
New Line.263399196 Bus1=263399193.1 Bus2=260664716.1 LineCode=1/0-AL-HMWPECN-15KV Phases= 1  Length=150.100000 units=m
New Line.264353599 Bus1=264353601.3 Bus2=261433667.3 LineCode=1/0-AL-TRXLPELCJ-15KV Phases= 1  Length=1.520000 units=m
New Line.263981660 Bus1=263981657.2 Bus2=261266937.2 LineCode=1/0-AL-TRXLPELCJ-15KV Phases= 1  Length=119.300000 units=m
New Line.450041335 Bus1=450041331.1 Bus2=450041303.1 LineCode=1/0-AL-TRXLPELCJ-25KV Phases= 1  Length=166.400000 units=m
New Line.384331485 Bus1=384331459.3 Bus2=384331487.3 LineCode=1/0-AL-TRXLPELCJ-25KV Phases= 1  Length=1.520000 units=m
New Line.261433670 Bus1=261433671.3 Bus2=261433667.3 LineCode=1/0-AL-TRXLPELCJ-15KV Phases= 1  Length=147.600000 units=m
New Line.264146151 Bus1=258425699.1 Bus2=264146153.1 LineCode=1/0-AL-TRXLPELCJ-15KV Phases= 1  Length=1.520000 units=m
New Line.264146156 Bus1=264146153.1 Bus2=261430842.1 LineCode=1/0-AL-TRXLPELCJ-15KV Phases= 1  Length=142.700000 units=m
New Line.263391461 Bus1=258406218.3 Bus2=263391463.3 LineCode=1/0-AL-HMWPECN-15KV Phases= 1  Length=1.520000 units=m
New Line.263391466 Bus1=263391463.3 Bus2=260662916.3 LineCode=1/0-AL-HMWPECN-15KV Phases= 1  Length=91.140000 units=m
New Line.620861446 Bus1=620861418.2 Bus2=620861448.2 LineCode=1/0-AL-TRXLPELCJ-25KV Phases= 1  Length=1.540000 units=m
New Line.263391560 Bus1=258406550.3 Bus2=263391562.3 LineCode=1/0-AL-HMWPECN-15KV Phases= 1  Length=1.530000 units=m
New Line.263391565 Bus1=263391562.3 Bus2=260662946.3 LineCode=1/0-AL-HMWPECN-15KV Phases= 1  Length=170.400000 units=m
New Line.263782341 Bus1=263782338.1 Bus2=261052096.1 LineCode=1/0-AL-TRXLPELCJ-15KV Phases= 1  Length=152.100000 units=m
New Line.263909229 Bus1=259418041.1 Bus2=263909231.1 LineCode=1/0-AL-TRXLPELCJ-15KV Phases= 1  Length=1.530000 units=m
New Line.384503020 Bus1=384502983.1 Bus2=384503022.1 LineCode=1/0-AL-TRXLPELCJ-25KV Phases= 1  Length=1.540000 units=m
New Line.260981173 Bus1=260981170.3 Bus2=260981164.3 LineCode=1/0-AL-TRXLPELCJ-15KV Phases= 1  Length=125.400000 units=m
New Line.260663783 Bus1=260663780.1 Bus2=260663785.1 LineCode=1/0-AL-HMWPECN-15KV Phases= 1  Length=268.800000 units=m
New Line.384503026 Bus1=384503022.1 Bus2=384502996.1 LineCode=1/0-AL-TRXLPELCJ-25KV Phases= 1  Length=247.700000 units=m
New Line.263782327 Bus1=258425926.1 Bus2=263782329.1 LineCode=1/0-AL-TRXLPELCJ-15KV Phases= 1  Length=1.520000 units=m
New Line.263391425 Bus1=258406123.1 Bus2=263391427.1 LineCode=1/0-AL-HMWPECN-15KV Phases= 1  Length=1.520000 units=m
New Line.263391520 Bus1=263391517.1 Bus2=260662941.1 LineCode=1/0-AL-HMWPECN-15KV Phases= 1  Length=153.400000 units=m
New Line.263391349 Bus1=263391346.2 Bus2=260662881.2 LineCode=1/0-AL-HMWPECN-15KV Phases= 1  Length=187.800000 units=m
New Line.263997742 Bus1=258443763.3 Bus2=263997744.3 LineCode=1/0-AL-TRXLPELCJ-15KV Phases= 1  Length=1.520000 units=m
New Line.263997747 Bus1=263997744.3 Bus2=261282710.3 LineCode=1/0-AL-TRXLPELCJ-15KV Phases= 1  Length=106.400000 units=m
New Line.263391344 Bus1=258405714.2 Bus2=263391346.2 LineCode=1/0-AL-HMWPECN-15KV Phases= 1  Length=1.530000 units=m
New Line.263391484 Bus1=263391481.2 Bus2=260663850.2 LineCode=1/0-AL-HMWPECN-15KV Phases= 1  Length=249.200000 units=m
New Line.260664749 Bus1=260664746.1 Bus2=260664736.1 LineCode=1/0-AL-TRXLPELCJ-15KV Phases= 1  Length=218.300000 units=m
New Line.260664744 Bus1=260664741.1 Bus2=260664746.1 LineCode=1/0-AL-TRXLPELCJ-15KV Phases= 1  Length=188.400000 units=m
New Line.263663378 Bus1=263663375.3 Bus2=260881911.3 LineCode=1/0-AL-TRXLPELCJ-15KV Phases= 1  Length=203.800000 units=m
New Line.263391506 Bus1=258406338.1 Bus2=263391508.1 LineCode=1/0-AL-HMWPECN-15KV Phases= 1  Length=1.530000 units=m
New Line.263663373 Bus1=259142547.3 Bus2=263663375.3 LineCode=1/0-AL-TRXLPELCJ-15KV Phases= 1  Length=1.520000 units=m
New Line.260664729 Bus1=260664726.1 Bus2=260664731.1 LineCode=1/0-AL-TRXLPELCJ-15KV Phases= 1  Length=209.100000 units=m
New Line.260664724 Bus1=260664721.1 Bus2=260664726.1 LineCode=1/0-AL-TRXLPELCJ-15KV Phases= 1  Length=149.900000 units=m
New Line.261061096 Bus1=261061097.1 Bus2=261061098.1 LineCode=1/0-AL-TRXLPELCJ-15KV Phases= 1  Length=114.300000 units=m
New Line.264338257 Bus1=260663785.1 Bus2=264338255.1 LineCode=1/0-AL-HMWPECN-15KV Phases= 1  Length=141.800000 units=m
New Line.260664689 Bus1=260664686.2 Bus2=260664691.2 LineCode=1/0-AL-HMWPECN-15KV Phases= 1  Length=132.300000 units=m
New Line.263395262 Bus1=258425363.2 Bus2=263395264.2 LineCode=1/0-AL-HMWPECN-15KV Phases= 1  Length=1.530000 units=m
New Line.260664684 Bus1=260664681.2 Bus2=260664686.2 LineCode=1/0-AL-HMWPECN-15KV Phases= 1  Length=410.100000 units=m
New Line.263960232 Bus1=263960229.2 Bus2=261243331.2 LineCode=1/0-AL-TRXLPELCJ-15KV Phases= 1  Length=425.100000 units=m
New Line.263395267 Bus1=263395264.2 Bus2=260663825.2 LineCode=1/0-AL-HMWPECN-15KV Phases= 1  Length=222.900000 units=m
New Line.263391380 Bus1=258405938.2 Bus2=263391382.2 LineCode=1/0-AL-HMWPECN-15KV Phases= 1  Length=1.520000 units=m
New Line.263391385 Bus1=263391382.2 Bus2=260662886.2 LineCode=1/0-AL-HMWPECN-15KV Phases= 1  Length=115.500000 units=m
New Line.263395429 Bus1=263395426.1 Bus2=260663875.1 LineCode=1/0-AL-HMWPECN-15KV Phases= 1  Length=169.700000 units=m
New Line.260664704 Bus1=260664701.2 Bus2=260664706.2 LineCode=1/0-AL-HMWPECN-15KV Phases= 1  Length=170.600000 units=m
New Line.263395424 Bus1=258425882.1 Bus2=263395426.1 LineCode=1/0-AL-HMWPECN-15KV Phases= 1  Length=1.530000 units=m
New Line.263395348 Bus1=263395345.2 Bus2=260663865.2 LineCode=1/0-AL-HMWPECN-15KV Phases= 1  Length=86.760000 units=m
New Line.263395402 Bus1=263395399.1.2.3 Bus2=260663870.1.2.3 LineCode=1/0-AL-HMWPECN-15KV Phases= 3  Length=108.700000 units=m
New Line.263395343 Bus1=258405818.2 Bus2=263395345.2 LineCode=1/0-AL-HMWPECN-15KV Phases= 1  Length=1.530000 units=m
New Line.261213171 Bus1=259446919.3 Bus2=261213173.3 LineCode=1/0-AL-TRXLPELCJ-15KV Phases= 1  Length=83.920000 units=m
New Line.263395222 Bus1=263395219.1 Bus2=260663795.1 LineCode=1/0-AL-HMWPECN-15KV Phases= 1  Length=94.730000 units=m
New Line.260662949 Bus1=260662946.3 Bus2=260662951.3 LineCode=1/0-AL-HMWPECN-15KV Phases= 1  Length=230.000000 units=m
New Line.263395208 Bus1=258425187.1 Bus2=263395210.1 LineCode=1/0-AL-HMWPECN-15KV Phases= 1  Length=1.530000 units=m
New Line.263395325 Bus1=258406233.2 Bus2=263395327.2 LineCode=1/0-AL-HMWPECN-15KV Phases= 1  Length=1.520000 units=m
New Line.263395280 Bus1=258425468.2 Bus2=263395282.2 LineCode=1/0-AL-HMWPECN-15KV Phases= 1  Length=1.520000 units=m
New Line.263395204 Bus1=263395201.1 Bus2=260663780.1 LineCode=1/0-AL-HMWPECN-15KV Phases= 1  Length=90.460000 units=m
New Line.263395285 Bus1=263395282.2 Bus2=260663830.2 LineCode=1/0-AL-HMWPECN-15KV Phases= 1  Length=90.100000 units=m
New Line.264310935 Bus1=260664706.2 Bus2=264310933.2 LineCode=1/0-AL-HMWPECN-15KV Phases= 1  Length=158.600000 units=m
New Line.260662929 Bus1=260662926.2 Bus2=260662931.2 LineCode=1/0-AL-HMWPECN-15KV Phases= 1  Length=140.000000 units=m
New Line.260662924 Bus1=260662921.2 Bus2=260662926.2 LineCode=1/0-AL-HMWPECN-15KV Phases= 1  Length=121.200000 units=m
New Line.264148871 Bus1=259577429.3 Bus2=264148873.3 LineCode=1/0-AL-TRXLPELCJ-15KV Phases= 1  Length=1.520000 units=m
New Line.264148876 Bus1=264148873.3 Bus2=261433687.3 LineCode=1/0-AL-TRXLPELCJ-15KV Phases= 1  Length=48.020000 units=m
New Line.260662909 Bus1=260662906.2 Bus2=260662911.2 LineCode=1/0-AL-HMWPECN-15KV Phases= 1  Length=88.770000 units=m
New Line.260662904 Bus1=260662901.2 Bus2=260662906.2 LineCode=1/0-AL-HMWPECN-15KV Phases= 1  Length=150.700000 units=m
New Line.263399241 Bus1=263399238.1 Bus2=260664741.1 LineCode=1/0-AL-TRXLPELCJ-15KV Phases= 1  Length=189.000000 units=m
New Line.260663808 Bus1=260663805.1 Bus2=260663810.1 LineCode=1/0-AL-HMWPECN-15KV Phases= 1  Length=191.700000 units=m
New Line.263399245 Bus1=258443539.1 Bus2=263399247.1 LineCode=1/0-AL-TRXLPELCJ-15KV Phases= 1  Length=1.530000 units=m
New Line.264148853 Bus1=259577439.2 Bus2=264148855.2 LineCode=1/0-AL-TRXLPELCJ-15KV Phases= 1  Length=1.520000 units=m
New Line.260663803 Bus1=260663800.1 Bus2=260663805.1 LineCode=1/0-AL-HMWPECN-15KV Phases= 1  Length=168.800000 units=m
New Line.264148858 Bus1=264148855.2 Bus2=261434112.2 LineCode=1/0-AL-TRXLPELCJ-15KV Phases= 1  Length=411.400000 units=m
New Line.261434095 Bus1=261434092.3 Bus2=261434097.3 LineCode=1/0-AL-TRXLPELCJ-15KV Phases= 1  Length=110.900000 units=m
New Line.263399223 Bus1=263399220.3 Bus2=260664761.3 LineCode=1/0-AL-HMWPECN-15KV Phases= 1  Length=215.200000 units=m
New Line.617401565 Bus1=258406032.2 Bus2=617401567.2 LineCode=1/0-AL-TRXLPELCJ-25KV Phases= 1  Length=1.520000 units=m
New Line.261434115 Bus1=261434112.2 Bus2=261434117.2 LineCode=1/0-AL-TRXLPELCJ-15KV Phases= 1  Length=132.100000 units=m
New Line.620695955 Bus1=620695940.1 Bus2=620695957.1 LineCode=1/0-AL-TRXLPELCJ-25KV Phases= 1  Length=220.000000 units=m
New Line.263399326 Bus1=258443856.3 Bus2=263399328.3 LineCode=1/0-AL-HMWPECN-15KV Phases= 1  Length=1.520000 units=m
New Line.263399281 Bus1=258443724.1 Bus2=263399283.1 LineCode=1/0-AL-HMWPECN-15KV Phases= 1  Length=1.520000 units=m
New Line.263399286 Bus1=263399283.1 Bus2=260664756.1 LineCode=1/0-AL-HMWPECN-15KV Phases= 1  Length=268.100000 units=m
New Line.263399308 Bus1=258443831.3 Bus2=263399310.3 LineCode=1/0-AL-HMWPECN-15KV Phases= 1  Length=1.530000 units=m
New Line.263399389 Bus1=258444254.3 Bus2=263399391.3 LineCode=1/0-AL-HMWPECN-15KV Phases= 1  Length=1.530000 units=m
New Line.264353603 Bus1=261433666.3 Bus2=264353601.3 LineCode=1/0-AL-TRXLPELCJ-15KV Phases= 1  Length=263.300000 units=m
New Line.263399182 Bus1=258443429.2 Bus2=263399184.2 LineCode=1/0-AL-HMWPECN-15KV Phases= 1  Length=1.520000 units=m
New Line.263399187 Bus1=263399184.2 Bus2=260664701.2 LineCode=1/0-AL-HMWPECN-15KV Phases= 1  Length=106.800000 units=m
New Line.264357164 Bus1=260662931.2 Bus2=264357162.2 LineCode=1/0-AL-TRXLPELCJ-15KV Phases= 1  Length=73.050000 units=m
New Line.450041329 Bus1=450041290.1 Bus2=450041331.1 LineCode=1/0-AL-TRXLPELCJ-25KV Phases= 1  Length=1.520000 units=m
New Line.384331491 Bus1=384331487.3 Bus2=384331483.3 LineCode=1/0-AL-TRXLPELCJ-25KV Phases= 1  Length=95.800000 units=m
New Line.264245364 Bus1=260664731.1 Bus2=264245362.1 LineCode=1/0-AL-TRXLPELCJ-15KV Phases= 1  Length=220.700000 units=m
New Line.263981655 Bus1=258425463.2 Bus2=263981657.2 LineCode=1/0-AL-TRXLPELCJ-15KV Phases= 1  Length=1.520000 units=m
New Line.260972734 Bus1=260972735.3 Bus2=260972736.3 LineCode=1/0-AL-TRXLPELCJ-15KV Phases= 1  Length=141.900000 units=m
New Line.263391479 Bus1=258406233.2 Bus2=263391481.2 LineCode=1/0-AL-HMWPECN-15KV Phases= 1  Length=1.530000 units=m
New Line.264276849 Bus1=260663840.2 Bus2=264276847.2 LineCode=1/0-AL-HMWPECN-15KV Phases= 1  Length=138.900000 units=m
New Line.263391470 Bus1=258406228.2 Bus2=263391472.2 LineCode=1/0-AL-HMWPECN-15KV Phases= 1  Length=1.520000 units=m
New Line.260981163 Bus1=260981164.3 Bus2=260981165.3 LineCode=1/0-AL-TRXLPELCJ-15KV Phases= 1  Length=126.800000 units=m
New Line.263391475 Bus1=263391472.2 Bus2=260662921.2 LineCode=1/0-AL-HMWPECN-15KV Phases= 1  Length=87.370000 units=m
New Line.620861452 Bus1=620861448.2 Bus2=620861437.2 LineCode=1/0-AL-TRXLPELCJ-25KV Phases= 1  Length=231.600000 units=m
New Line.263391574 Bus1=263391571.3 Bus2=260662961.3 LineCode=1/0-AL-HMWPECN-15KV Phases= 1  Length=86.450000 units=m
New Line.263909234 Bus1=263909231.1 Bus2=261184167.1 LineCode=1/0-AL-TRXLPELCJ-15KV Phases= 1  Length=172.900000 units=m
New Line.261433680 Bus1=261433681.2 Bus2=261433677.2 LineCode=1/0-AL-TRXLPELCJ-15KV Phases= 1  Length=64.890000 units=m
New Line.260663798 Bus1=260663795.1 Bus2=260663800.1 LineCode=1/0-AL-HMWPECN-15KV Phases= 1  Length=430.900000 units=m
New Line.263391452 Bus1=258406013.2 Bus2=263391454.2 LineCode=1/0-AL-HMWPECN-15KV Phases= 1  Length=1.520000 units=m
New Line.263391457 Bus1=263391454.2 Bus2=260662896.2 LineCode=1/0-AL-HMWPECN-15KV Phases= 1  Length=197.600000 units=m
New Line.263709231 Bus1=259217100.3 Bus2=263709233.3 LineCode=1/0-AL-TRXLPELCJ-15KV Phases= 1  Length=1.520000 units=m
New Line.263709236 Bus1=263709233.3 Bus2=260981170.3 LineCode=1/0-AL-TRXLPELCJ-15KV Phases= 1  Length=192.400000 units=m
New Line.263782332 Bus1=263782329.1 Bus2=261052101.1 LineCode=1/0-AL-TRXLPELCJ-15KV Phases= 1  Length=39.350000 units=m
New Line.263391430 Bus1=263391427.1 Bus2=260662891.1 LineCode=1/0-AL-HMWPECN-15KV Phases= 1  Length=108.400000 units=m
New Line.263782336 Bus1=258425926.1 Bus2=263782338.1 LineCode=1/0-AL-TRXLPELCJ-15KV Phases= 1  Length=1.520000 units=m
New Line.261140527 Bus1=259374992.2 Bus2=261140529.2 LineCode=1/0-AL-TRXLPELCJ-15KV Phases= 1  Length=253.700000 units=m
New Line.261052089 Bus1=261052090.1 Bus2=261052091.1 LineCode=1/0-AL-TRXLPELCJ-15KV Phases= 1  Length=65.380000 units=m
New Line.261052104 Bus1=261052101.1 Bus2=261052106.1 LineCode=1/0-AL-TRXLPELCJ-15KV Phases= 1  Length=295.300000 units=m
New Line.261052109 Bus1=261052106.1 Bus2=261052090.1 LineCode=1/0-AL-TRXLPELCJ-15KV Phases= 1  Length=171.300000 units=m
New Line.263391511 Bus1=263391508.1 Bus2=260662936.1 LineCode=1/0-AL-HMWPECN-15KV Phases= 1  Length=146.500000 units=m
New Line.263391515 Bus1=258406348.1 Bus2=263391517.1 LineCode=1/0-AL-HMWPECN-15KV Phases= 1  Length=1.520000 units=m
